**$ENCRYPTED_LIB
**$INTERFACE
*$
* TPS562202
*****************************************************************************
* (C) Copyright 2020 Texas Instruments Incorporated. All rights reserved.                                            
*****************************************************************************
** This model is designed as an aid for customers of Texas Instruments.
** TI and its licensors and suppliers make no warranties, either expressed
** or implied, with respect to this model, including the warranties of 
** merchantability or fitness for a particular purpose.  The model is
** provided solely on an "as is" basis.  The entire risk as to its quality
** and performance is with the customer
*****************************************************************************
*
* This model is subject to change without notice. Texas Instruments
* Incorporated is not responsible for updating this model.
*
*****************************************************************************
*
** Released by: Texas Instruments Inc.
* Part: TPS562202
* Date: 18SEP2020
* Model Type: TRANSIENT
* Simulator: PSPICE
* Simulator Version: 17.4-2019 S009
* EVM Order Number: TPS562202EVM
* EVM Users Guide: SLUUC67 – AUGUST 2020
* Datasheet: SLUSE28 – APRIL 2020
* Topologies Supported: Buck, Inverting Buck Boost
*
* Model Version: Final 1.00
*
*****************************************************************************
*
*
* Final 1.00
* Release to Web.
*
*****************************************************************************
*
* Model Usage Notes:
* A. Features have been modelled
*   1. Switching Characteristics and variation with VIN
*   2. Valley current limit
*   3. ECO Mode
*   4. Hiccup operation
*   5. under voltage protection
*   6. Output voltage programmability.
*   7. Inverting buck boost Configuration
* 
* B. Features have not been modelled
*   1. Operating Quiescent Current
*   2. Shutdown Current 
*   3. Temperature dependent characteristics
* 
* C. Application Notes
* 	1. The parameter STEADY_STATE has been used to reach the steady state faster. 
*      Keep STEADY_STATE = 0 to observe start up behaviour. 
*      Keep STEADY_STATE = 1 and appropriate IC on Inductor and capacitor to observe for faster Steady state.
* 
*****************************************************************************
.SUBCKT TPS562202_TRANS EN GND SW VBST VFB VIN PARAMS: STEADY_STATE=0
$CDNENCSTART_ADV2
17f62b1fb318c25603aeb85644ae98a5d179ef807807791f6459efacb9d7ffc37a831b146dc0f06bb1ef275619162e6d8f7ad0dc708bf15ae1a1d5bd0ae623b2
c03e100481a706fc69d9b274e18f4cb25652d031f8de1abfd3cd0db998d19e4b0b4b945465eed843b713ef7a6a9517f9ce8848de8c53bc61a474cf7566e10376
62070955318c3eaf6d33326d50d0a08c627ce5b47408a02e513871b3e5907dc280d221434adf0c58bc0920decc2056177bb47768921fbb7e7f40092333efebcb
bec384cd59ac5b14fd40c4d2c27a2c0d3a7075fd69e05bbf74a596e2cf653b9f192c00dcbab0f5939aed5a957433fc2aad46247764bf819a88883ba31b6b1b07
9aa1852b8f77f1a28d42dfc489b457a9e5e700ef742f7b1ac13ac53446f514223c9d320530462117a7e89dfb06779df5dc3120e8e97d2dbcdd067cbc1eea0dfc
10ef46454f1832fd8faeaf73328be03b74499066d5216735b82729f7143d78e585696825f2a07c0241ec7ea60c7219eaeb4d0528888bd80fb708f241ea7371d9
f36551016244621c0ae1c1c11c4ba0beda3f5e8b22db99a196a48037e59fb486c76bb561ecbf1bff8999e334dbc883fe42b87742699b6fd9f1b9a41fe4c6ea96
ec6e00308396369603b879471152fbecbd6f4fc95c49fdfa18bdebd4cda15050dcddecc2ce547080c6c405bbcef00349b8fd11db1518d985856af6ed506095d3
bb29468ec7bfa2458f65a4d6fb128935b67fa9711abe6d6efb2026036d661cf6e96d42d1738d7b7dbeba6b2781ff49535cf801ace15fbdd5121db089b5ad5ab3
910301d70f931d569b3b3d67721bb5453906bbf5a3d3ee1ff156c2ffb06eb72e5c7f1069cfe272bf703465b399610e6cdaff40937f93508d10d7a12dc67a00d9
1f151db2ac4dc76c93afa99260fd5a2a55c31fe1df258c59a6ae47c97bc81ff2fd957d39cfebed0ff9966016b7885e18e938d5993da3d0ce91aa64959bb60fa4
3864001e863225d37e7b0c7ec8db7e04745d2f9fd2afabae35c3ee7d9869c39519797c44bba88ae04ffb6c1cc326b32316dadd325f20c64cde69de697edfd25e
43d0127b4cb34d0c943e6cabbf679f06617c58f09bd597b365deeba6ab64a28009d44f0afd66bccf08cabf09c2450884dc9890713baac8553edd276e7efd498d
fdee4325090e68b175adc88f16978e203c9d320530462117a7e89dfb06779df5d4f5132a2444a5f260e717b9c55a908aaa5aa0089fa1aaf051c1f00bce6f2721
52eac2b702a9975c0775dc510a4c7120638e6a49184506e44b8a26cefe0246b1a73b7b8b04f00533c5aae649029fa01a758cd1433b095bd557ee088122dde553
94aa929f0c54e0aadb788460e6bbbc06e23bf7b2b1d5ad6ccf8a7a2915928b31a5b8c36cd515229ec1cede64474468fbcc443b89e3ab95c75a71e1904feb8ac8
f0575896586cb48950e5c8731cdf51791dab21501491faf6b1cd124837b3b9b6e5bcf6bee9b4eb5a0e822d86319999759c9459c6ecb154ba2ab1a2f4a89c9ec1
4e783eb3055a53373aafae7e9ab627bd395b05cd4c5331eef9946928c3aaad811c4aa3330b71ee8345ee936b9f3a4013cfcdc283658954a9b39f807a64b445dc
12146c895af27b09aeff33f158d6b8b85edd4e06ccfbb59d02d91b15cb8ffc06f81bed367a7498b3d0096e0e4424fc7d09ca46b23658867365bb55d2d89f3078
81723a0b86aa87a7aaaa3250495eeed26146e1ae215632794e9a085c41874731cbc22ef9ca80db407da76fba8e2d1d554d876558cee3e252798fef237d494c73
bd3594af85e8068f44fde6fcf893cf34b4b5d58bdb3bb94558d5d42c2aeed5fb3f3cef42580745b0c74659c525064b454077ad57f502dd188f9378c3d8cad6b7
4473216a7ca00d310f695b0b7f00d5fa3f8198008c66b99f006053663d5d0366c61930f40199d9cd659bee1c7ac1cf622542d0c555684a839a11abcf7d95a0bd
4a5b40954dbfdd0cf8a26065019a5121ae0b79f7a17cec1110cb7ca2a1ae2cea68b45c7e70470ad03c58a76d5802e27442b87742699b6fd9f1b9a41fe4c6ea96
4a193ccf68b3c9e54a810d6948df0b5783741802f547c9fae5b4c17b203f2ce7a7d7d36cb6ce38c0d948383de19949ff805de18e1f5aab6169680d9754eebefb
b2b62eaf99535d18af0607b231d33ed7395b05cd4c5331eef9946928c3aaad811c4aa3330b71ee8345ee936b9f3a4013cfcdc283658954a9b39f807a64b445dc
ad22f5aec1dfc398c4fa233102f172f76146e1ae215632794e9a085c41874731400d085b9e1603eee904a6935f2614f6420b2f7ebdc203afac4d6889a617ee2e
e32fb575c644aea89e82231c61c01a7e3a1c9609f5f5063ae63258c8f90641e66a44df497f8cf236c0e0527042b34a5ab5b3b96b2baff7045a91c99b5fb8ee63
d9ea628a8fbb3eb5ddbce694c5ca5624e8be1e9824ba15b60850f6c6143cd282a71f4fcf19ec21e7caa7eed072ff0e36fff61764552fb81ed2ebda0aff0ee0e3
3dacd48c019eb90c312dd73babf9cb855cc6efdee9f6af940c582589d47a469ba2bf90fe1a091d63ab4f30ea3f7cf19e42b87742699b6fd9f1b9a41fe4c6ea96
65561b268154955ef17bdd9746a0f04a6146e1ae215632794e9a085c41874731a5a3237a01a7205416763af1a56691e5636641ade9d80a7f5c10dea2c4970f66
42d34c6b6cccd0d91f2859e518be5fa967c606539b37dca902d81bbc41cd2e6ca387166bd1c742de19ec3c0b860437c4c281a48490d9ebb0b9a256d3b8955ff1
5054432af27556a478d1c783c7d5e391f5fd2469d7956263170288fd0725667487bae25275b6645df5bf84a95b2493070b92eca08a1c8be66b5bec70859def4b
75a4df9b955a4ea44b7c34526febf286f5fd2469d7956263170288fd07256674a045918d65e0c6c4ccb56498f55b71520b92eca08a1c8be66b5bec70859def4b
8552c02e72576abf2d5b4a417713fb24f5fd2469d7956263170288fd072566747ffcbb5695dda5bf5fa008fc585802260b92eca08a1c8be66b5bec70859def4b
f197ae3094532e6aff758bae099a0b674bffca2eba5633c5b54207ead85402c7993fdd2b188bee228b6f7ca40d97b5d5122babca43fbf037f74c4159702d3ab6
91f0131075ea21330294c6ea10671e83ac3b4c9b1f3a7286fdcd3a6539c99dae7576f0a941a25c375352853835f1d9f7fabace9e27166724e9dd89c6a3cad6f3
12e88fe0b231d531181ef55e2e7b3bfa913bdde10f158331e55b218cde844db01150734e4806bfdd27f176e1d2466b2a5b886d37a773552612b1bb9d3266156d
2ca096f6d23145f18b135239c5cb9bce780041e2e235e11312c0d10428595fd5fbb817e85273ae43cca35fc63461b33d40d9bcbe93ba44c48154d308c48dbc77
4a6d68398e9559985ef8952ff3793a9bae58ab56802208086e2e47d5748405defa3176b1ddf2c790874796d5804cead81ff1e52b491fb98c4de5c8c10bed6dd1
4f1b3429707e004b1a62a4653f974692563b70e4e18292839a4c21d8ffe24095fe830c90788194b5148a261b06c45b6569815b52d2bacd98ce1b09cb5641ceb3
42d34c6b6cccd0d91f2859e518be5fa967c606539b37dca902d81bbc41cd2e6ca387166bd1c742de19ec3c0b860437c4c281a48490d9ebb0b9a256d3b8955ff1
8d523aa4fb9b3951e914e393819ac7bd4ad765bc05d246b0acf7a00367f733e2ddc4d56040b99c2bad53c966b1535f264e12af93a70f7cbe55c6a3d7d17699bf
e8d513d98004084a2e1101bbdb3123436146e1ae215632794e9a085c41874731da05ff030c2e66e0d21936ef2635ea87addc2f3b4362fed52a2cc32c8680294d
3df6a40bef899910723dc83eb095f4d46146e1ae215632794e9a085c41874731794a113a81c64c1ad99b1a641685ee91a88f094819deac5936a80ed39f1e0d5c
8039033b5c53da5845cdccd021ece1eaf5fd2469d7956263170288fd072566742d13f76f8682d1387f3063d1369d7e9bd78335c08515e47ea3bfb4c23a0c6f8a
f6251b3837dd523e9da2404dc01fce3281cd702d89b662c2cd1c03a3a2e5768631dbcb5c2459590d9164037767daeb9cafd414f1277779b1a082cf1b0f4135e1
d338f4d8800615dba26058b83c2cc6073f8198008c66b99f006053663d5d0366c61930f40199d9cd659bee1c7ac1cf622542d0c555684a839a11abcf7d95a0bd
398811c782f12dd87e5730e9e349d3cf3994391f3c48853a7327bf6f5fa545e35bde49220015762f76b63503ad8ad2c44374134bb94bdc4971632cca29300d6f
3f56e5645114b60d09181eb17d39b2d886d7ddb3f828c083e332b00f35d937632e09c216e6727273cec9f991190a76e9ee441d5b51acdd5a36ee0ef6e39a8978
9a8989ee368454115c79cc784f6f3eec395b05cd4c5331eef9946928c3aaad811c4aa3330b71ee8345ee936b9f3a4013cfcdc283658954a9b39f807a64b445dc
a9e8dec4948b68c75dbd0ae947f600e160d97a887c59ed029111f0dac58be7c4e9838e592c65191a7b272246fa54c815ed1ed037d1b448f1e2f155cb37da400a
305920a0cd321a5cddb977fb4b5a716cf5fd2469d7956263170288fd07256674b0ca00a8311d73202469c7b26569fe950b92eca08a1c8be66b5bec70859def4b
5477cefac59b16a4ffdf13e1c7eb9a316146e1ae215632794e9a085c4187473134f3c2f84d8eb74d3d5e871652bc37645c6168d71a87c0736ca3b39ceb8447a8
163d7167d0610c3abcfe5a4377efa2cd3a7075fd69e05bbf74a596e2cf653b9f192c00dcbab0f5939aed5a957433fc2aad46247764bf819a88883ba31b6b1b07
8dbbb958602553232ee699663985026b9ef4b59b82d27b3718d136702c20e10e5bde49220015762f76b63503ad8ad2c44374134bb94bdc4971632cca29300d6f
2da6dcb2b05e0dc1a17160b34126f5756146e1ae215632794e9a085c41874731f68e3e89d614637645a27372b8b41430cc443b89e3ab95c75a71e1904feb8ac8
981b63eb606fa627491b61dd2bc88aaf83741802f547c9fae5b4c17b203f2ce726f81d9f1e9c667c9fd7165158e2222d01d2ede1359a85bbdfffd15d93dc6197
c239fc0d16001c17e24be7b0b69f6c6bb67fa9711abe6d6efb2026036d661cf6e96d42d1738d7b7dbeba6b2781ff49535cf801ace15fbdd5121db089b5ad5ab3
8dbbb958602553232ee699663985026bdcd4844856e7959232f1238d4a2c343f59fe289bc0225d5dc4798734147b4cacce8848de8c53bc61a474cf7566e10376
c5402b1179209836166c3bd7ef265b89f5fd2469d7956263170288fd0725667490ad53d6d5094335492a0f1a9551e4290b92eca08a1c8be66b5bec70859def4b
2e1a5eb453a96db5564d291e3703136860f6cec8c31907649ec7060c1b7684ec6e27c4758e40978603271aac6e2234fd0b92eca08a1c8be66b5bec70859def4b
11cfcff4b07925338f95e921090873e36146e1ae215632794e9a085c4187473163bed92abce2bff49e7b6022665823868e4de54f602578a7a8747cb7f34232f5
a40410fa2adb71c0f07d35fd8059cfbb6146e1ae215632794e9a085c41874731e8323c7709a64d241cf4d6071f541933ba0bc15418fe1e6ee478cdfcf3cf7224
6c79afc015ef01293babbf120f604628b192198c9f1dcd9999fa9ce7d5b2ec612834ae1684ffad0ad9cd76f44afc34110b92eca08a1c8be66b5bec70859def4b
7058f0aef68dd5e21e5cec2b8448f985b4b5d58bdb3bb94558d5d42c2aeed5fb5d750fed07bf1b043c4950391f62df34006df87b16a50eef65c66648bef6d15b
1d751ee2659870166d6e05cf64b6186c1e9b1cfc06769244546578085aa378846ee3ca1b67c8cfd587ec070d6c707b39b512e74ae36b0ba35f11d2cd384de95d
0962b76d43446a2b401d22ca66c839b534e7c31a1f76697d598798c966f257e173ff5b483dc4a9f58207661e369e940f119d833847ca94cb0b659820878b812e
7ee3adabda35ae96b7d4d07e548ed04e0fd899b926f617adb3509575fda859eb55b634d1f9020f73b1bcd1735b6577099f19d84d9bf3d705055c738c3a82f100
4865b6a95cbb82044c91f5beef41e2a8c777593416e98f7948a9e59fa27a079c4742fb364bfd6eccf27b56aca20c6859f14417150f5751416b124b589e25ff35
56dcdfa14dea41f21e5bad9923ceaf3d08e3e6c97bf76f4b445c3fb4d575306c7372492370f4a18ced98d6903bc8f6b3ce0f8ee511d7c7ff7d84a24886e6ccf5
6e5a68841f807e0fac72f8fa1f28fddac87395ba794159f20aae7ac5c3ff272978370f6ca9f90dcd92b9b01ecc32dde252dcea293b2890ed9c8e7a95ad2657da
691e61fd29c6d99cf1c2b52e64cfdf97a394a739d40a08aa536934c58db2bea0046c143c886c4d301cd889134534e54752dcea293b2890ed9c8e7a95ad2657da
b67ea700ba85bbe0a5282215431bc29b86d7ddb3f828c083e332b00f35d93763be03f110f0ee92e31ae473f9859df98ed0df0d65ef94e5c79fc73b1b7dee26bf
c5aef37a3143e695d7deefa1a6d4387e3c9d320530462117a7e89dfb06779df5d4f5132a2444a5f260e717b9c55a908aaa5aa0089fa1aaf051c1f00bce6f2721
b5e3630ba22bab3895275c647301bcd5ebaaff418295058334a9d5e361894c59b67fa9711abe6d6efb2026036d661cf6f3e75855274d61f55789bdc0a5625957
961d053578d84f0a864a70cc2618ea85d19a042993335e8d2bd0cc36023ba8a53bb6d49843fc3f6f5439b387ce5712c042b87742699b6fd9f1b9a41fe4c6ea96
65a79a12c780ca79d8f8c826da474bf56146e1ae215632794e9a085c4187473142022e4a011d889bc068a4852399371acc8d3006c7e6515f580991aae47b8358
5a046fb06d01b6093674d0d92b71d906beb41e15408fd279ca78231f9fc7bb18b7d1b1799bb7350a30cbf9101afa2f2175a5a53d7fd875fc00a824f9ee34148f
7c15ebc28bcf4f4908ce958d8dec723a9d61a30d1c4c78213889db7908acdcfd89359906ef70ddfb0a58c7b1d345bdf7ec839002fbdf0309b2bafd3384540310
1a590cd9dfced49a9b919794e8b31ca6598e28957996a08078a25ac775f3f2a869f780b503fcc38630932d06fd532fb460e456a119310e4464058bb4b782dcb2
6cf373fd78ea28e66ddb02c705fff889a73b7b8b04f00533c5aae649029fa01ad4912078928c294e065e1720b37d11bfe8d26e472fd5795130d2548332d1d317
c570ee9d53c6da20d32fc1d77b14aafb2a89082a3305db6f543ea62b7e7816603fd3f1b333f03771de7a3d58594d6fd8bebc0173e4ff7cfe4d9230120d187a45
4a7a8fda1af9a697d1806c3a70624762c477fee5f125e04270bcdfde44542097aecaf9471e168a955ca3a51ddc975848e7c851b8b9f26adcf53dab1046eecf95
86b34fb9b0f1add5307b165975ef7ad73f8198008c66b99f006053663d5d0366c61930f40199d9cd659bee1c7ac1cf622542d0c555684a839a11abcf7d95a0bd
9aa1852b8f77f1a28d42dfc489b457a9e5e700ef742f7b1ac13ac53446f514223c9d320530462117a7e89dfb06779df5dc3120e8e97d2dbcdd067cbc1eea0dfc
fc4fb18dacfd8e8640f0a83ae94962bb8704ba89a897802013a97a6f180332ee59a80c871fb489a857f29491c57f97588ad705d34acfb96ece68e403f10360e6
635ea1189c1ae2dae9fe44ca85e320e11a152c2d66aec6ba182ff7dc619f03e23f8198008c66b99f006053663d5d0366aa13145be0dc7e14fe2e7677cb13ab90
78da38293a4f654620f9d650231afc34babf10d09fceabe033f323ecad0dab8296a1c0ed0764d360e32c34c6308ce90ce7d6d70d19f66b4d24d64eb24f125d04
834d44ac762c5a3b82f74ef18c24d637005337ce95e08c6635320d9ce60d34e6be06f289d903b1530dd04c2e39d5bdc25aab57eb562d091d4402c72ee37c152e
6fe395a18cfe59527c23362e6594606fe9838e592c65191a7b272246fa54c8156f276a68fe7b8092cd416a24f3e3143eca74516309fde8ee86f8d3e78f6a46c1
ce4f15c9d1391a1a7c988d94f03892b9ef43e137e67beb21db71b2723a282d5add925652ba0631a60e2839e2da6a9bad52dcea293b2890ed9c8e7a95ad2657da
a8ac899922224a81399e3f6df7438ede35818911ee35c02d9d26bd5ec3ce66255cebe22a44b4dfacf9f2d1171c6ac32b42b87742699b6fd9f1b9a41fe4c6ea96
4bdbf73f7e2197108d07fbd6f74cdb07c6077b2eaf85d6807f5acd14ef7fe992cb08846162a71ba2012515e3a47f986842b87742699b6fd9f1b9a41fe4c6ea96
073538b3957bfc5cd1851642cf459001dbd9d820e1b78dc285a5790ef8976b4a39795c9ed0c6d9e10f80bb1cf8678a8a42b87742699b6fd9f1b9a41fe4c6ea96
563f836075a719e75ce5474201a2d935d1e36361d00141d134032ebdac266765676bc046b36d5376c47c39e22428f98c1e507a9a63b3c2de0bfee3ae5857ec4b
954de88c651c4acc31613c1b5f73e667ddc4d56040b99c2bad53c966b1535f266442943d36cc90a12ba7d3f90b3c1eec00ab801a46da801f96e0daffa2b196f4
aa1481eafa091028def053bd72438ac43eaadaf5618fe12c2572e3caacedceb4846def95f4aa92337069c618672e0bd9635075e695014375fc9f2fd0b3f93ab8
82908df1b8d2e8b56cc1f87d796da78cb3720dbbdc0ab91b80cb124328c86d09f8f289e23d15362cc6f70e673b0580fdc43251d7c15274e06137548b02953509
2d138f5dd7a88daa82f502869b7247bd4fba11d950523174e9e07e8fee47b96a02f99d2b8fa8fee8806c0eb532c68cff4c82aba28e78426fc29a94f61a14e417
685aeaf143044dc1cd2562b42511ab858694d860edb4b369ba15e5b2ae319bf66be11cc040a6960bf36f0d488ce4774aec839002fbdf0309b2bafd3384540310
eb8273b4d323d69f3a906358ecd44236f5440b8c2c17609c67de83fd11798f8f8715e80d984ae79319b21662625e224c97f2a7a6c4ae3459232c1c7764eb953f
4280a68579e072d656286f3df0abbeab3f8198008c66b99f006053663d5d0366c61930f40199d9cd659bee1c7ac1cf622542d0c555684a839a11abcf7d95a0bd
a7ebdd3746253131ca5338cc18d244688694d860edb4b369ba15e5b2ae319bf6ce48e338e7663dd449a383196746380eec839002fbdf0309b2bafd3384540310
085ac0ddc8e52d2eb29ad6480b7f09ce8694d860edb4b369ba15e5b2ae319bf627387b687d5158b7a8fbdee1c6180437ec839002fbdf0309b2bafd3384540310
7e7c7b0fb82bc40669e97f23c85d59016813637d1b4b692768c070ff6417a46f857c5507121a5d0ddb737bfe4c9097deea90c0e0bd5d54c7f1346c820ebd3792
fb04deaf8bd6d37300233099af2746fae9866e6c46129bac69d8edbe556eca720ea05e0610f5ec6d99ba55dda81c4f06085f88cad57fec812ae0e895c426c361
8dbbb958602553232ee699663985026b9ef4b59b82d27b3718d136702c20e10e5bde49220015762f76b63503ad8ad2c44374134bb94bdc4971632cca29300d6f
a4094c51a96fb00cf9af8d55e47040cdcc596a4b70957be3d5f7ddd447b8e3a7d25bf46c34196819399608b3ca14b3f214099928de08eaaa552e166c2184df15
f79d95697d6a131a0896a48a3d6f5dbdf5440b8c2c17609c67de83fd11798f8f56add2a3de6739f68907bf6e309222405697ae1e65afa82260d2dc93ff86370c
17dd311918544c883b78096bb26acb439adac5b52324ce246c8f3c9acc72b86e4fcdd816e8a6e6d69501cb46f12fadf2766da7841df489fd795670f5b01249e0
92d76faa63d15326e77569bef401d9f0b67fa9711abe6d6efb2026036d661cf6e96d42d1738d7b7dbeba6b2781ff49535cf801ace15fbdd5121db089b5ad5ab3
9aa1852b8f77f1a28d42dfc489b457a9e5e700ef742f7b1ac13ac53446f514223c9d320530462117a7e89dfb06779df5dc3120e8e97d2dbcdd067cbc1eea0dfc
3fb6cca5fbed214d62cffa360060261a27338297a738b783009d839dfc4cd014dbf25a7d9604e92be16d35bc27f9a400f82a8a40c92e700a75d2c3364771aa53
86b34fb9b0f1add5307b165975ef7ad73f8198008c66b99f006053663d5d0366c61930f40199d9cd659bee1c7ac1cf622542d0c555684a839a11abcf7d95a0bd
9aa1852b8f77f1a28d42dfc489b457a9e5e700ef742f7b1ac13ac53446f514223c9d320530462117a7e89dfb06779df5dc3120e8e97d2dbcdd067cbc1eea0dfc
f8e9fef01544fc65c8488ef6ecc54c7bf2a38e225374189e4998664aa9c4f8f556e9200548132f9ac2c903026a296503d4a3153bbd0e7f25b261d9e7fb1ea16f
fb04deaf8bd6d37300233099af2746fae9866e6c46129bac69d8edbe556eca720ea05e0610f5ec6d99ba55dda81c4f06085f88cad57fec812ae0e895c426c361
8dbbb958602553232ee699663985026b9ef4b59b82d27b3718d136702c20e10e5bde49220015762f76b63503ad8ad2c44374134bb94bdc4971632cca29300d6f
f913084b0c94d301027d3c3447a7c088d3842b14ae8adcd592776df08b0e16b06902260f8820c83762936ac0fab559d614099928de08eaaa552e166c2184df15
4dfb1c0564af1146b8aa76ffdec071b2a3382459b8235c89ed4c2a75be56f408e31a73c548e81198823e9606f7a5160acfeeaa9ed59d6aee89dde6662966c6c5
e869dc229e6521957605787d04b6e8248694d860edb4b369ba15e5b2ae319bf6813e3d1fafb5b5a5d259bca0c9144695ec839002fbdf0309b2bafd3384540310
3a5a5c757fce8e56788d83b01bda81d26813637d1b4b692768c070ff6417a46f857c5507121a5d0ddb737bfe4c9097defe10e3122c67edb601556c6e269b1049
b5d9e53a9f66d0405684ca4e8fe0fb775bde49220015762f76b63503ad8ad2c419a9c70d5593a0515676b71df0fc5e8a2aebcd8b415c2e09a9a572f16dc134af
8dbbb958602553232ee699663985026bdcd4844856e7959232f1238d4a2c343f510173155d5f069562286013252399fa26ab50dbe54711b81eb6caf893c63e01
0e8b239eb681cf4b290bca6a3742c01c27338297a738b783009d839dfc4cd0145ecc9fd287b4c0ec8b40a706df31710ffc89e4bbafaa98b7ca523ea86a2df4a2
920822f6de1dd28c02e783f1e50a2407f8f289e23d15362cc6f70e673b0580fd4e69229c28f705e66638d17b6c7645e1909ec99c9db8a5e60bb5254b7249cbe3
9aa1852b8f77f1a28d42dfc489b457a9e5e700ef742f7b1ac13ac53446f514223c9d320530462117a7e89dfb06779df5dc3120e8e97d2dbcdd067cbc1eea0dfc
a098ff08634cbfdf209141cd681a82847cab67c68ec02218904d660b38722c1d5d2d3e738ebcb037e602ffd25bfdb6062da186960c88451840d183c3aad77076
fb04deaf8bd6d37300233099af2746fae9866e6c46129bac69d8edbe556eca720ea05e0610f5ec6d99ba55dda81c4f06085f88cad57fec812ae0e895c426c361
8dbbb958602553232ee699663985026b9ef4b59b82d27b3718d136702c20e10e5bde49220015762f76b63503ad8ad2c44374134bb94bdc4971632cca29300d6f
1d49c5fdc00adace6a631ceca9de5c2a0e820486cbf3bbbb0b0b1d82a13e38ae1a0306bec9a774c93e469c7eb2438b0988ca08f5245d917dd79643fd705a38f0
fb04deaf8bd6d37300233099af2746fae9866e6c46129bac69d8edbe556eca720ea05e0610f5ec6d99ba55dda81c4f06085f88cad57fec812ae0e895c426c361
8dbbb958602553232ee699663985026b9ef4b59b82d27b3718d136702c20e10e5bde49220015762f76b63503ad8ad2c44374134bb94bdc4971632cca29300d6f
410a712a6a290eeb0e094f798c95ba71b77bdfb153eb1a64541c268e087fdbef0b42c548be7545ee4e4a5a10e8d788af7bb47768921fbb7e7f40092333efebcb
bec384cd59ac5b14fd40c4d2c27a2c0d3a7075fd69e05bbf74a596e2cf653b9f192c00dcbab0f5939aed5a957433fc2aad46247764bf819a88883ba31b6b1b07
9aa1852b8f77f1a28d42dfc489b457a9e5e700ef742f7b1ac13ac53446f514223c9d320530462117a7e89dfb06779df5dc3120e8e97d2dbcdd067cbc1eea0dfc
70ebaf80913c1e06f020bc6bcd9e34074e059aa9677d5186ff4bd088bace3225d616dea1e66191d860ac7635fbb331dfb2b38ef7e3fcbd065f71a349ca93dccc
fd0c242e3eeddde077a0934c53197d861e9b1cfc06769244546578085aa378846ee3ca1b67c8cfd587ec070d6c707b39b512e74ae36b0ba35f11d2cd384de95d
a896ea495073864af5dcc1529a802d7b0e820486cbf3bbbb0b0b1d82a13e38ae1a0306bec9a774c93e469c7eb2438b09fe10e3122c67edb601556c6e269b1049
b5d9e53a9f66d0405684ca4e8fe0fb775bde49220015762f76b63503ad8ad2c419a9c70d5593a0515676b71df0fc5e8a2aebcd8b415c2e09a9a572f16dc134af
8dbbb958602553232ee699663985026bdcd4844856e7959232f1238d4a2c343f510173155d5f069562286013252399fa26ab50dbe54711b81eb6caf893c63e01
80a1fc11cb2d13f36b35c37440bebc0cfeb76c15ad62498f9aefd64a5b16029ad1386535c57bc33d1682528eea3ec9ea732f8ecba97e880bafb56ad80b058f64
3f80c9839df248ae18e719622cf69e6df8f289e23d15362cc6f70e673b0580fd4e69229c28f705e66638d17b6c7645e1909ec99c9db8a5e60bb5254b7249cbe3
910301d70f931d569b3b3d67721bb5453906bbf5a3d3ee1ff156c2ffb06eb72e5c7f1069cfe272bf703465b399610e6cdaff40937f93508d10d7a12dc67a00d9
ab9277a788deb49ce8d4aab0f99636bf96bfb6f0f83eff997aa85454b7290d563dde93c8fe2fb68ba8f32b5c90a18957dac11ce77e54fd8568fd809b4d7428f5
b5381799db8e653cd6d87065508807797beea78a43cce2426ef24c2aab0bbe610ea05e0610f5ec6d99ba55dda81c4f06085f88cad57fec812ae0e895c426c361
75c7a759c211baef8d5d33c39ed46652e9838e592c65191a7b272246fa54c8156f276a68fe7b8092cd416a24f3e3143eca74516309fde8ee86f8d3e78f6a46c1
bbaede619713cb4aae3277fc71d274a1d2a0012f91ae962e6e8e462bca588cca72a1c764a82d221c89478909a752280da1c1cdfc4641db6389eae370ff5b19ad
23bef7178fa0aaffd567e817ace7e92238cfea118088948e260ece35c51f68a0d8f43df459954ffa9bdf41b3c6df800adaff40937f93508d10d7a12dc67a00d9
a7de293bace7712dc74b65027dd7d324870ffccb0b30378d08ac3edf577d50baf7cef500ee80c5f360f461e7538f39422b5992017a2a7bcd74da81362afd2bf7
880387ecace1628d347e89bb4453fddc38cfea118088948e260ece35c51f68a02573324a45eea880c5ffea22f8cefffbec839002fbdf0309b2bafd3384540310
12674945fba40d27ad6fcd584bd34c11cbc0d97ee683f2e6c62dd58bfaaab19392a312275d3885b0ba694c441eb51879c5af0e38facd2affa7569cdf94c22021
698cc0351087e6bcd134a40d4f17f677f8f289e23d15362cc6f70e673b0580fd4e69229c28f705e66638d17b6c7645e1909ec99c9db8a5e60bb5254b7249cbe3
8dbbb958602553232ee699663985026b9ef4b59b82d27b3718d136702c20e10e5bde49220015762f76b63503ad8ad2c44374134bb94bdc4971632cca29300d6f
6d1be7318c5b26ed696a9dee87b0b1ed9425f760c9b031b86e399174215831345688c2452e7086d6d028e23f42772e20949919d75d44dede157d1d0ddd4bfb2a
f0281eab6d076122e1998b0dc2d3bec81e9b1cfc06769244546578085aa378846ee3ca1b67c8cfd587ec070d6c707b39b512e74ae36b0ba35f11d2cd384de95d
12146c895af27b09aeff33f158d6b8b85edd4e06ccfbb59d02d91b15cb8ffc06f81bed367a7498b3d0096e0e4424fc7d09ca46b23658867365bb55d2d89f3078
7f35b7f4e60f5813f54bf4a9ec57ea979283dcd06176dfec05e966b0d6488c8ec07a1bd75eb4672abc061449d6f913e741b7d80ff63d161e4fb0803536da0062
3fd70d94db51ee096a8257e4fff3195eddc4d56040b99c2bad53c966b1535f266442943d36cc90a12ba7d3f90b3c1eec00ab801a46da801f96e0daffa2b196f4
37c05100d7e35cbfa0fb1dbcea0d48e56ecdb114775585d9b38e78db10dba14ecc8e872614b84bc255c5af5990ae4ba2ea27b90867b5612b6d960403d76fd279
29dbbf6a1055433800c430cd0bab504a85dbe22b761d1549f04e39d1c064c86694d76056c43a7775cb1daebb608cbb822859ef1558d8c7445332228f259365ca
689e80428177a87357d9f279dbf780875bde49220015762f76b63503ad8ad2c419a9c70d5593a0515676b71df0fc5e8a2aebcd8b415c2e09a9a572f16dc134af
12146c895af27b09aeff33f158d6b8b85edd4e06ccfbb59d02d91b15cb8ffc06f81bed367a7498b3d0096e0e4424fc7d09ca46b23658867365bb55d2d89f3078
ceb8a7cb1b14fe6e5f1e779d9e09a229a9bf13a34c15bc52e57b5504c0580af5f78535f35edc4676444befd6c9d78b67d7dfe9473f7828a7600656c2878bd4c5
701cbe4df7e0956d9290f0aaed1cce6f392930a2d06365b8f51490ef2e4cbf5c0ea05e0610f5ec6d99ba55dda81c4f06085f88cad57fec812ae0e895c426c361
d34ef78c9a2e28b3c0bf893c209cf04d6ecdb114775585d9b38e78db10dba14ecc8e872614b84bc255c5af5990ae4ba2ea27b90867b5612b6d960403d76fd279
2140ca722bcfcba7d18cbf7c7c0d2cce08935a70470fcb58f35176fa8d0d783810152ef5cef1b36acee55d286396ba7ae39e4fa819d36fbc1095bc040d9f3e5e
5ae45620e3109779a97ca0b6388a03d33f8198008c66b99f006053663d5d0366c61930f40199d9cd659bee1c7ac1cf622542d0c555684a839a11abcf7d95a0bd
910301d70f931d569b3b3d67721bb5453906bbf5a3d3ee1ff156c2ffb06eb72e5c7f1069cfe272bf703465b399610e6cdaff40937f93508d10d7a12dc67a00d9
0db0aee8d30316bfb1a4eada22981b144e7a5787a0bccaf97bd9c2448e7746eedd0b6be7314df546ecb8e3f37293fdd092699c0795f59dc5b93fc63f6e93d20d
9866e565d6c4e39f8df5189213e173ca395b05cd4c5331eef9946928c3aaad811c4aa3330b71ee8345ee936b9f3a4013cfcdc283658954a9b39f807a64b445dc
a7646d985834376076b0c5ec4b8a69ac3d8e3b7fc8b379d7f29991608b4e657c79593b20060128bdeab98d9fbab5928ac327dc7cb7969f0bd38914901c9840d5
81f00c4f56a01bfc6b489da804244848395b05cd4c5331eef9946928c3aaad811c4aa3330b71ee8345ee936b9f3a4013cfcdc283658954a9b39f807a64b445dc
1ed4a190137e5ed7faa7fddebc1b1df68f3ed289ed07bd3ae5c8b2250f1a8d986644b4b29df0550fe129439fd6d62667baaa5c5429b8ebae3906f4a14916c3c2
a55ad38b13614d0fae95578ffd7ac8d8cbc0d97ee683f2e6c62dd58bfaaab1938a893ed6e4ccad6c0e095599c2efeee774dbf140f12bc8648250f80292e81e8d
698cc0351087e6bcd134a40d4f17f677f8f289e23d15362cc6f70e673b0580fd4e69229c28f705e66638d17b6c7645e1909ec99c9db8a5e60bb5254b7249cbe3
8dbbb958602553232ee699663985026b9ef4b59b82d27b3718d136702c20e10e5bde49220015762f76b63503ad8ad2c44374134bb94bdc4971632cca29300d6f
47bc3b201a1f113ae245b947b825f4af4e7a5787a0bccaf97bd9c2448e7746eeca1a1806dfac373145e5308fc76599cb06444914dba5d43603bd40ac8ffea7fe
8b0c20db02f7c4d9b29007cc850b989f7beea78a43cce2426ef24c2aab0bbe610ea05e0610f5ec6d99ba55dda81c4f06085f88cad57fec812ae0e895c426c361
44d73275d00aa58b3852f8be12bd7a2eda50d341e9401fdc704e3c5dbd73b1a16d5b1787038a37e7e824d4cc0105dda72b5992017a2a7bcd74da81362afd2bf7
1c7a251ae1dbc9d54eae0fdd865989d019c0159d65fff93353bf93295a6255c57d944e96dc21e9fd7c25324ab7126c58a61b5a7327272d33f69b4416b46a4738
444905d87cab57496fbf0ad0cbea44ad395b05cd4c5331eef9946928c3aaad811c4aa3330b71ee8345ee936b9f3a4013cfcdc283658954a9b39f807a64b445dc
1ed4a190137e5ed7faa7fddebc1b1df68f3ed289ed07bd3ae5c8b2250f1a8d98ede9152310ad57e9e60a4e017ea2e1e5baaa5c5429b8ebae3906f4a14916c3c2
b6dea22929c7d7092d75dbf7639978f24e059aa9677d5186ff4bd088bace32251de0dc6834173ff8e53a2aec36868736f9defea23fbd44c339efe4c69c6f6f38
613def0ac454ecbd0fb692d2b36f86a0c777593416e98f7948a9e59fa27a079c4742fb364bfd6eccf27b56aca20c6859f14417150f5751416b124b589e25ff35
bfbc7ac17bd3d24ecd9fa96c8acbcef40869d412d98e7d030a72897751e06804659c1611a36aa9fc163e1e7fa7278f8a5f72e99972b99a44385b6d38eb2e5c17
ddab9be72063aff5e3a67621f9c79bda3d8e3b7fc8b379d7f29991608b4e657c8c772651e0c3b51bd19bcae5cf6983fcdf1b95f72abf7f60f166938da6840a78
c239fc0d16001c17e24be7b0b69f6c6bb67fa9711abe6d6efb2026036d661cf6e96d42d1738d7b7dbeba6b2781ff49535cf801ace15fbdd5121db089b5ad5ab3
8dbbb958602553232ee699663985026b9ef4b59b82d27b3718d136702c20e10e5bde49220015762f76b63503ad8ad2c44374134bb94bdc4971632cca29300d6f
d5ea8036a7c9f859684cb71e24aebfc23d8e3b7fc8b379d7f29991608b4e657c55f69e1f820a16c8956063ee1bee875beb229fea9f142b6822ef06b8a74ac805
aa4c0178b85592d87f0723fda85765ef1e9b1cfc06769244546578085aa378846ee3ca1b67c8cfd587ec070d6c707b39b512e74ae36b0ba35f11d2cd384de95d
1ed4a190137e5ed7faa7fddebc1b1df68f3ed289ed07bd3ae5c8b2250f1a8d986644b4b29df0550fe129439fd6d62667baaa5c5429b8ebae3906f4a14916c3c2
bc32f6f9346c36131b1c0e4d7a0766e203b513f461f95138d7b19d350e11f3a933905ef4c122ff2dcf41ab1e3ca95c955bd759b59222b11b5892a23d96398133
3afc4afc36edf73d00986f9753cdc5d83f8198008c66b99f006053663d5d0366c61930f40199d9cd659bee1c7ac1cf622542d0c555684a839a11abcf7d95a0bd
8dbbb958602553232ee699663985026b9ef4b59b82d27b3718d136702c20e10e5bde49220015762f76b63503ad8ad2c44374134bb94bdc4971632cca29300d6f
eb5993d3e7a59fbac217e831d02d8c913d8e3b7fc8b379d7f29991608b4e657c93b219b570d17e9673eeeae8fa12a5ab42cd091acead2f57e718530242a3d74c
47c2234b0a69ef047439240b1dff40a956b8e8c711b4ed41c7ac51dde2de43390ea05e0610f5ec6d99ba55dda81c4f06085f88cad57fec812ae0e895c426c361
9aa1852b8f77f1a28d42dfc489b457a9e5e700ef742f7b1ac13ac53446f514223c9d320530462117a7e89dfb06779df5dc3120e8e97d2dbcdd067cbc1eea0dfc
0593446bd9f39ba24c736fdd08a668d542328626d18743829c95cd505839216aa687ac1b7e77dac0fe053586825a6de269b845e0cc82fa600305594f43b1af22
210aaf493b727a4ce497a55ea4db424b7003ac039ba4d4a0ac235ef31404de480ea05e0610f5ec6d99ba55dda81c4f06085f88cad57fec812ae0e895c426c361
910301d70f931d569b3b3d67721bb5453906bbf5a3d3ee1ff156c2ffb06eb72e5c7f1069cfe272bf703465b399610e6cdaff40937f93508d10d7a12dc67a00d9
e268e5cd3670344fa6c11132ee6e9841a6148a2cefb457ba368bb69bed6a66b6ead99c409ff2b71de5deee5af53b499162366af1166bf5b91feebfe49772861f
fa75263426b035e2437eb58b9603236b99dc3cb93f47bd0bd4dd369cf59aff7a395b05cd4c5331eef9946928c3aaad81e94fe776a0888e271a56626d62f7ad21
8061e43078129c4a07d995f9f231d23c42328626d18743829c95cd505839216abbe4670df88073b4d7838f59a17624caf9defea23fbd44c339efe4c69c6f6f38
317dc808afc3e8b5a1900ae5631f6f4d745d2f9fd2afabae35c3ee7d9869c39519797c44bba88ae04ffb6c1cc326b32316dadd325f20c64cde69de697edfd25e
36fa44102ed6fe8bd823ac16f5717fe642328626d18743829c95cd505839216a230c3a4411580af6f941793af8e52a6ca450f9a928cc7976c5f4c0ad975ba1a0
698cc0351087e6bcd134a40d4f17f677f8f289e23d15362cc6f70e673b0580fd4e69229c28f705e66638d17b6c7645e1909ec99c9db8a5e60bb5254b7249cbe3
8dbbb958602553232ee699663985026b9ef4b59b82d27b3718d136702c20e10e5bde49220015762f76b63503ad8ad2c44374134bb94bdc4971632cca29300d6f
3d217fd79d22eb8accc6dd92de96a67638c0cc4d63a97fcf278006e6b04285536ce9bf945ec3e1810b4447dcc277252a92699c0795f59dc5b93fc63f6e93d20d
8f04c13badf2499aefde543fe71e1689395b05cd4c5331eef9946928c3aaad811c4aa3330b71ee8345ee936b9f3a4013cfcdc283658954a9b39f807a64b445dc
806f5619f346bfe3285b385938be1db042328626d18743829c95cd505839216a7dcf14e303f4a1290787bd1bb17abd679765ed69d06d8d7133834d476eaa16a5
bb29468ec7bfa2458f65a4d6fb128935b67fa9711abe6d6efb2026036d661cf6e96d42d1738d7b7dbeba6b2781ff49535cf801ace15fbdd5121db089b5ad5ab3
910301d70f931d569b3b3d67721bb5453906bbf5a3d3ee1ff156c2ffb06eb72e5c7f1069cfe272bf703465b399610e6cdaff40937f93508d10d7a12dc67a00d9